CM NEC Input File
CM Monopole pcb trace 0.0001m
CM Excitation at base by a 1V source
CM Antenna geometry
CM Copyright 2014 Groundworks Technologies
CE 
GW     1 ,    8,  0.00000E+00,  0.00000E+00,  0.00000E+00,  0.10000E+00,  0.00000E+00,  0.00000E+00,  1.00000E-03
GW     2 ,    8,  0.00000E+00,  0.00100E+00,  0.00000E+00,  0.10000E+00,  0.01000E+00,  0.00000E+00,  1.00000E-03
GW     3 ,    8,  0.00000E+00,  0.00200E+00,  0.00000E+00,  0.10000E+00,  0.02000E+00,  0.00000E+00,  1.00000E-03
GW     4 ,    8,  0.00000E+00,  0.00300E+00,  0.00000E+00,  0.10000E+00,  0.03000E+00,  0.00000E+00,  1.00000E-03
GW     5 ,    8,  0.00000E+00,  0.00400E+00,  0.00000E+00,  0.10000E+00,  0.04000E+00,  0.00000E+00,  1.00000E-03
GW     6 ,    8,  0.00000E+00,  0.00500E+00,  0.00000E+00,  0.10000E+00,  0.05000E+00,  0.00000E+00,  1.00000E-03
GW     7 ,    8,  0.00000E+00,  0.00600E+00,  0.00000E+00,  0.10000E+00,  0.06000E+00,  0.00000E+00,  1.00000E-03
GW     8 ,    8,  0.00000E+00,  0.00700E+00,  0.00000E+00,  0.10000E+00,  0.07000E+00,  0.00000E+00,  1.00000E-03
GE    
FR  0, 1000, 0,0, 100, 10
EX  0    4    1   10         1 
RP 0, 19, 36, 1000, 0, 0, 10, 10
EN     0   ,  0 ,    0      0 , 0.00000E+00 , 0.00000E+00 , 0.00000E+00 , 0.00000E+00 , 0.00000E+00 , 0.00000E+00
